57
charge 0 multiplicity 1
C            0.44277  -1.69284   0.23780
C            2.14717  -1.61749  -1.67906
C            1.69024  -2.05655  -0.34226
C            0.74819  -1.48075   1.60885
C            2.03581  -1.96126   1.89450
C            2.63057  -2.32462   0.67985
H            0.08357  -1.09137   2.34989
H            2.51114  -1.92562   2.84615
H            3.64960  -2.60494   0.54705
H            3.23610  -1.60049  -1.62660
N            1.66112  -0.24645  -1.94555
H            1.83719  -2.27294  -2.49712
C            2.66363   0.98864   1.80708
C            3.70654   0.06816   1.61376
C            3.96411  -0.02498   0.23524
C            3.08170   0.83722  -0.42410
C            2.27175   1.48209   0.54920
H            2.22616   1.19959   2.75450
H            4.16858  -0.52458   2.36598
H            4.65893  -0.69244  -0.21898
H            1.59300   2.28916   0.35967
Fe           2.13062  -0.47839   0.65112
C            2.73580   0.74282  -1.85341
H            3.60070   0.44699  -2.46147
H            2.34821   1.69685  -2.21559
C            0.90668  -0.15626  -3.19505
H            0.52395   0.86115  -3.31247
H            1.52424  -0.40639  -4.06938
H            0.05592  -0.84569  -3.14974
Pd           0.09965   0.28298  -0.58578
O           -0.36766   2.18775  -1.04052
N           -1.50131   0.48656   0.56422
C           -1.02824   2.75558  -0.10446
C           -1.51951   1.82547   1.06158
C           -2.44428  -0.31363   0.18140
O           -1.26679   3.94839  -0.05581
O           -2.13331  -1.41379  -0.38808
H           -0.82649  -1.65930  -0.17513
H           -2.51195   2.15433   1.39002
O           -3.70449   0.01790   0.49088
C           -4.86261  -0.97336  -1.41084
C           -4.81556  -0.81591   0.10937
C           -4.72667  -2.17608   0.80314
C           -6.03980  -0.04334   0.60340
H           -4.87210   0.00653  -1.88403
H           -5.76026  -1.51410  -1.69787
H           -3.99158  -1.52405  -1.75651
H           -5.61671  -2.75854   0.58176
H           -4.65109  -2.03972   1.87994
H           -3.85138  -2.71812   0.45553
H           -6.94759  -0.58612   0.35678
H           -6.07184   0.93773   0.13700
H           -5.98493   0.09036   1.68060
C           -0.50092   1.84002   2.21456
H           -0.97274   1.49820   3.13375
H            0.30887   1.14166   1.94481
H           -0.11232   2.84266   2.37237